power-flow-agent/results/ieee14/2026-09-23/gpt-5.6-sol/plan_act_nogate__matched/traces/20_case14-multistep-038-s0.transcript.txt
==============================================================================
TRANSCRIPT  plan_act_nogate  |  openrouter:openai/gpt-5.6-sol  |  case14  |  case14-multistep-038-s0  run 0
==============================================================================
date: 2026-09-23   seed: 0   difficulty: multistep   tool variant: load_split

[system]   (hash 7da5e2a37ec4, from methods/plan_act_nogate/method.json prompt_files)
You are a power system power-flow analysis assistant. You help the user complete power system analysis tasks from natural-language requests.

## What you can do
You complete tasks by calling tool functions:
1. Load an IEEE standard test system (14, 30, 57, 118, 300 buses)
2. Run AC power flow
3. Modify the load at a bus and re-solve
4. Disconnect or reconnect a line and re-solve
5. Query the network status
6. Run an N-1 contingency analysis (disconnect branches one at a time and rank the worst cases)
7. Generate remedial-action suggestions (what-if load shedding or voltage adjustment) to reduce violation risk

## Key rules
- Never fabricate any numerical result. Every voltage, power, loss, or loading value must come from a tool return value.
- If a tool reports an error or a non-converged power flow, say so explicitly and do not report numbers for that state.
- If the request is ambiguous, state the interpretation you are using.
- Bus and line identifiers in the request are MATPOWER 1-based ids; pass them to the tools as given, unless the request itself states a different indexing convention for that identifier (e.g. "(0-based)"), in which case convert it to the MATPOWER 1-based id before calling any tool.
- After a network modification, re-solve before reporting any value.
- Always reply in English.

## Reply format
After each analysis, reply in this structure:
1. One-sentence summary
2. Key numbers (total load, total generation, total losses, voltage range) taken from the tool outputs
3. Violations, if any
4. Suggested next step

[user]   (complete message, stored at run time)
Load the IEEE 14-bus system, set the active load at bus 6 to 7 MW, set the active load at bus 4 to 40.3 MW, and finally rerun the power flow, then report the bus with the lowest voltage magnitude.

[tools available to the model]   (function-calling schema, --tool-variant load_split; enum values and defaults as sent)
  load_case(case_name: string* in {case14, case30, case57, case118, case300})  Load IEEE test case.
  run_powerflow()  Run power flow on current case.
  disconnect_line(from_bus: integer*, to_bus: integer*)  Disconnect line/branch between two buses and recompute.
  reconnect_line(from_bus: integer*, to_bus: integer*)  Reconnect line/branch between two buses and recompute.
  get_most_loaded_branch()  Get most loaded branch.
  run_n1_contingency(top_k: integer (default 5), criteria: string in {max_violations, max_overload, min_voltage} (default max_violations), max_candidates: integer (default 0))  Run N-1 contingency analysis.
  recommend_remedial_actions(max_actions: integer (default 5), allow_load_shed: boolean (default True), allow_voltage_control: boolean (default True), include_best_comparison: boolean (default True))  Recommend remedial actions.
  apply_remedial_action(action_index: integer*, confirmed: boolean (default False))  Apply one remedial action by index.
  get_status()  Get current network status.
  generate_plot(plot_type: string* in {voltage_heatmap, flow_diagram, violation_overview, comparison})  Generate one plot.
  set_active_load(bus_id: integer*, p_mw: number*)  Set a bus's active load (MW) and recompute. Use this when the request states only an active-power value. This tool has no reactive-power argument: the bus's present reactive load is always left unchanged. If the request also states a reactive-power value, use set_load instead.
  set_load(bus_id: integer*, p_mw: number*, q_mvar: number*)  Set a bus's active and reactive load (MW, Mvar) and recompute. Use this only when the request states both values. If the request states only an active-power value, use set_active_load instead -- do not invent a reactive-power value here to fill this in.

[planner system prompt]   (hash 76ea681e520a; as assembled today from methods/plan_act; the planning call sends this plus the request)
You are the planner of a power-system analysis agent. You cannot call tools yourself. Given the user's request, output ONLY a JSON object of the form
{"plan": [{"tool": "<tool_name>", "args": {...}}, ...]}
listing, in execution order, every tool call needed to answer the request. Use only the tools below with exactly these argument names (* = required); where an argument lists allowed values, use one of them verbatim. Bus and line identifiers in the request are MATPOWER 1-based ids; pass them to the tools as given, unless the request itself states a different indexing convention for that identifier (e.g. "(0-based)"), in which case convert it to the MATPOWER 1-based id. Do not include explanations, markdown, or any text outside the JSON.

Available tools:
- load_case(case_name: string in {case14, case30, case57, case118, case300}*): Load IEEE test case.
- run_powerflow((none)): Run power flow on current case.
- disconnect_line(from_bus: integer*, to_bus: integer*): Disconnect line/branch between two buses and recompute.
- reconnect_line(from_bus: integer*, to_bus: integer*): Reconnect line/branch between two buses and recompute.
- get_most_loaded_branch((none)): Get most loaded branch.
- run_n1_contingency(top_k: integer, criteria: string in {max_violations, max_overload, min_voltage}, max_candidates: integer): Run N-1 contingency analysis.
- recommend_remedial_actions(max_actions: integer, allow_load_shed: boolean, allow_voltage_control: boolean, include_best_comparison: boolean): Recommend remedial actions.
- apply_remedial_action(action_index: integer*, confirmed: boolean): Apply one remedial action by index.
- get_status((none)): Get current network status.
- generate_plot(plot_type: string in {voltage_heatmap, flow_diagram, violation_overview, comparison}*): Generate one plot.
- set_active_load(bus_id: integer*, p_mw: number*): Set a bus's active load (MW) and recompute. Use this when the request states only an active-power value. This tool has no reactive-power argument: the bus's present reactive load is always left unchanged. If the request also states a reactive-power value, use set_load instead.
- set_load(bus_id: integer*, p_mw: number*, q_mvar: number*): Set a bus's active and reactive load (MW, Mvar) and recompute. Use this only when the request states both values. If the request states only an active-power value, use set_active_load instead -- do not invent a reactive-power value here to fill this in.

[planner output]
[
 {
  "tool": "load_case",
  "args": {
   "case_name": "case14"
  }
 },
 {
  "tool": "set_active_load",
  "args": {
   "bus_id": 6,
   "p_mw": 7
  }
 },
 {
  "tool": "set_active_load",
  "args": {
   "bus_id": 4,
   "p_mw": 40.3
  }
 },
 {
  "tool": "run_powerflow",
  "args": {}
 },
 {
  "tool": "get_status",
  "args": {}
 }
]

--- round 1 ---
[assistant]   (635 in / 146 out tokens, 3.7 s)
{"plan":[{"tool":"load_case","args":{"case_name":"case14"}},{"tool":"set_active_load","args":{"bus_id":6,"p_mw":7}},{"tool":"set_active_load","args":{"bus_id":4,"p_mw":40.3}},{"tool":"run_powerflow","args":{}},{"tool":"get_status","args":{}}]}

--- round 2 ---
[tool load_case]   (gate: not applied)
{"case_name": "case14", "n_buses": 14, "n_generators": 5, "n_lines": 20, "n_loads": 11, "total_load_mw": 260.19519348172884, "total_gen_capacity_mw": 772.4000000000001}
[tool set_active_load]   (gate: pass)
{"case_name": "case14", "converged": true, "bus_voltages": [{"bus_id": 1, "vm_pu": 1.06, "va_deg": 0.0, "is_violation": true, "violation_type": "overvoltage"}, {"bus_id": 2, "vm_pu": 1.045, "va_deg": -4.930473370516825, "is_violation": false, "violation_type": null}, {"bus_id": 3, "vm_pu": 1.0099999999999998, "va_deg": -12.845237471939479, "is_violation": false, "violation_type": null}, {"bus_id": 4, "vm_pu": 1.018132325998654, "va_deg": -10.207553236043875, "is_violation": false, "violation_type": null}, {"bus_id": 5, "vm_pu": 1.0202130754900094, "va_deg": -8.635020678627011, "is_violation": false, "violation_type": null}, {"bus_id": 6, "vm_pu": 1.07, "va_deg": -13.679871779524994, "is_violation": true, "violation_type": "overvoltage"}, {"bus_id": 7, "vm_pu": 1.0612920986580554, "va_deg": -13.165885099130309, "is_violation": true, "violation_type": "overvoltage"}, {"bus_id": 8, "vm_pu": 1.09, "va_deg": -13.165885099130307, "is_violation": true, "violation_type": "overvoltage"}, {"bus_id": 9, "vm_pu": 1.0551281980909435, "va_deg": -14.700864658226486, "is_violation": true, "violation_type": "overvoltage"}, {"bus_id": 10, "vm_pu": 1.0506244313388649, "va_deg": -14.792491093278947, "is_violation": true, "violation_type": "overvoltage"}, {"bus_id": 11, "vm_pu": 1.0563971840868984, "va_deg": -14.380685710979058, "is_violation": true, "violation_type": "overvoltage"}, {"bus_id": 12, "vm_pu": 1.0556903563524023, "va_deg": -14.5267781751368, "is_violation": true, "violation_type": "overvoltage"}, {"bus_id": 13, "vm_pu": 1.0509268851105011, "va_deg": -14.62473662884952, "is_violation": true, "violation_type": "overvoltage"}, {"bus_id": 14, "vm_pu": 1.0356755887147113, "va_deg": -15.647262095425708, "is_violation": false, "violation_type": null}], "line_flows": [{"line_id": 0, "from_bus": 1, "to_bus": 2, "p_from_mw": 155.30728283814196, "q_from_mvar": -20.035354546620056, "loading_percent": 1.492226766010081, "is_violation": false}, {"line_id": 1, "from_bus": 1, "to_bus": 5, "p_from_mw": 74.34547715191701, "q_from_mvar": 3.6309677317561886, "loading_percent": 0.7098798217891643, "is_violation": false}, {"line_id": 2, "from_bus": 2, "to_bus": 3, "p_from_mw": 74.78982247357133, "q_from_mvar": 3.410084200560511, "loading_percent": 0.7240807912592723, "is_violation": false}, {"line_id": 3, "from_bus": 2, "to_bus": 4, "p_from_mw": 55.554523995149715, "q_from_mvar": -1.6843371899201247, "loading_percent": 0.5372389109291571, "is_violation": false}, {"line_id": 4, "from_bus": 2, "to_bus": 5, "p_from_mw": 40.56304901965399, "q_from_mvar": 1.0032225277660123, "loading_percent": 0.39359989373773835, "is_violation": false}, {"line_id": 5, "from_bus": 3, "to_bus": 4, "p_from_mw": -25.402010249511957, "q_from_mvar": 5.134259759519528, "loading_percent": 0.2618002321202983, "is_violation": false}, {"line_id": 6, "from_bus": 4, "to_bus": 5, "p_from_mw": -62.69081221446275, "q_from_mvar": 15.772830294816725, "loading_percent": 0.6413463289192529, "is_violation": false}, {"line_id": 7, "from_bus": 6, "to_bus": 11, "p_from_mw": 8.522332300088983, "q_from_mvar": 3.2906265089687636, "loading_percent": 0.08624143586177595, "is_violation": false}, {"line_id": 8, "from_bus": 6, "to_bus": 12, "p_from_mw": 7.657936300475587, "q_from_mvar": 2.35422663642857, "loading_percent": 0.07563145234712676, "is_violation": false}, {"line_id": 9, "from_bus": 6, "to_bus": 13, "p_from_mw": 17.68818089196564, "q_from_mvar": 6.801567786269014, "loading_percent": 0.1788993346200002, "is_violation": false}, {"line_id": 10, "from_bus": 9, "to_bus": 10, "p_from_mw": 3.692365871918034, "q_from_mvar": 4.235416805267791, "loading_percent": 0.05379139810940575, "is_violation": false}, {"line_id": 11, "from_bus": 9, "to_bus": 14, "p_from_mw": 8.411219750677187, "q_from_mvar": 3.6920502598480924, "loading_percent": 0.08793848058274323, "is_violation": false}, {"line_id": 12, "from_bus": 10, "to_bus": 11, "p_from_mw": -4.647598333528364, "q_from_mvar": -1.1573768317208961, "loading_percent": 0.04604803425023882, "is_violation": false}, {"line_id": 13, "from_bus": 12, "to_bus": 13, "p_from_mw": 1.6792330291227466, "q_from_mvar": 0.6607016945483898, "loading_percent": 0.017266082416830753, "is_violation": false}, {"line_id": 14, "from_bus": 13, "to_bus": 14, "p_from_mw": 6.338521045443116, "q_from_mvar": 1.5421202805338996, "loading_percent": 0.06269999681591361, "is_violation": false}, {"line_id": 100000, "from_bus": 4, "to_bus": 7, "p_from_mw": 27.266915218732862, "q_from_mvar": -9.380193317912651, "loading_percent": 0.2860780744571044, "is_violation": false}, {"line_id": 100001, "from_bus": 4, "to_bus": 9, "p_from_mw": 15.61596915959994, "q_from_mvar": -0.22312531194893578, "loading_percent": 0.15494367359210526, "is_violation": false}, {"line_id": 100002, "from_bus": 5, "to_bus": 6, "p_from_mw": 40.86844949167353, "q_from_mvar": 12.506775003626558, "loading_percent": 0.42315701150380586, "is_violation": false}, {"line_id": 100003, "from_bus": 7, "to_bus": 8, "p_from_mw": -1.451261552850432e-14, "q_from_mvar": -17.296320671734815, "loading_percent": 0.16462038117160643, "is_violation": false}, {"line_id": 100004, "from_bus": 7, "to_bus": 9, "p_from_mw": 27.266915218420735, "q_from_mvar": 6.3117267496148335, "loading_percent": 0.26637912732242963, "is_violation": false}], "total_generation_mw": 270.1005672812367, "total_load_mw": 256.76189585011025, "total_loss_mw": 13.33867143595535, "voltage_violations": [{"bus_id": 1, "vm_pu": 1.06, "va_deg": 0.0, "is_violation": true, "violation_type": "overvoltage"}, {"bus_id": 6, "vm_pu": 1.07, "va_deg": -13.679871779524994, "is_violation": true, "violation_type": "overvoltage"}, {"bus_id": 7, "vm_pu": 1.0612920986580554, "va_deg": -13.165885099130309, "is_violation": true, "violation_type": "overvoltage"}, {"bus_id": 8, "vm_pu": 1.09, "va_deg": -13.165885099130307, "is_violation": true, "violation_type": "overvoltage"}, {"bus_id": 9, "vm_pu": 1.0551281980909435, "va_deg": -14.700864658226486, "is_violation": true, "violation_type": "overvoltage"}, {"bus_id": 10, "vm_pu": 1.0506244313388649, "va_deg": -14.792491093278947, "is_violation": true, "violation_type": "overvoltage"}, {"bus_id": 11, "vm_pu": 1.0563971840868984, "va_deg": -14.380685710979058, "is_violation": true, "violation_type": "overvoltage"}, {"bus_id": 12, "vm_pu": 1.0556903563524023, "va_deg": -14.5267781751368, "is_violation": true, "violation_type": "overvoltage"}, {"bus_id": 13, "vm_pu": 1.0509268851105011, "va_deg": -14.62473662884952, "is_violation": true, "violation_type": "overvoltage"}], "thermal_violations": [], "summary_text": "", "solver_backend": "pandapower", "llm_prompt": null, "llm_response": null, "resolved_bus_id": 6, "assumption": "reactive load at this bus is unchanged from its present value"}
[tool set_active_load]   (gate: pass)
{"case_name": "case14", "converged": true, "bus_voltages": [{"bus_id": 1, "vm_pu": 1.06, "va_deg": 0.0, "is_violation": true, "violation_type": "overvoltage"}, {"bus_id": 2, "vm_pu": 1.045, "va_deg": -4.744261785522628, "is_violation": false, "violation_type": null}, {"bus_id": 3, "vm_pu": 1.0100000000000002, "va_deg": -12.519676375954603, "is_violation": false, "violation_type": null}, {"bus_id": 4, "vm_pu": 1.0193830926847185, "va_deg": -9.781651494996359, "is_violation": false, "violation_type": null}, {"bus_id": 5, "vm_pu": 1.021129640336112, "va_deg": -8.302566414660815, "is_violation": false, "violation_type": null}, {"bus_id": 6, "vm_pu": 1.07, "va_deg": -13.308281838626106, "is_violation": true, "violation_type": "overvoltage"}, {"bus_id": 7, "vm_pu": 1.0618961017582365, "va_deg": -12.75326529478478, "is_violation": true, "violation_type": "overvoltage"}, {"bus_id": 8, "vm_pu": 1.09, "va_deg": -12.753265294784779, "is_violation": true, "violation_type": "overvoltage"}, {"bus_id": 9, "vm_pu": 1.0557659615676667, "va_deg": -14.296093751782017, "is_violation": true, "violation_type": "overvoltage"}, {"bus_id": 10, "vm_pu": 1.051161792656725, "va_deg": -14.393672003252604, "is_violation": true, "violation_type": "overvoltage"}, {"bus_id": 11, "vm_pu": 1.0566816236294623, "va_deg": -13.995605606847787, "is_violation": true, "violation_type": "overvoltage"}, {"bus_id": 12, "vm_pu": 1.0557325824129777, "va_deg": -14.152430523846505, "is_violation": true, "violation_type": "overvoltage"}, {"bus_id": 13, "vm_pu": 1.0510291686880138, "va_deg": -14.248564947684988, "is_violation": true, "violation_type": "overvoltage"}, {"bus_id": 14, "vm_pu": 1.036089820563498, "va_deg": -15.254268238673646, "is_violation": false, "violation_type": null}], "line_flows": [{"line_id": 0, "from_bus": 1, "to_bus": 2, "p_from_mw": 149.6803341906614, "q_from_mvar": -18.705423213135823, "loading_percent": 1.4374366921072956, "is_violation": false}, {"line_id": 1, "from_bus": 1, "to_bus": 5, "p_from_mw": 71.5830344457913, "q_from_mvar": 3.454795563652116, "loading_percent": 0.6836945818310722, "is_violation": false}, {"line_id": 2, "from_bus": 2, "to_bus": 3, "p_from_mw": 73.53405346823057, "q_from_mvar": 3.531166734721389, "loading_percent": 0.7121985273483293, "is_violation": false}, {"line_id": 3, "from_bus": 2, "to_bus": 4, "p_from_mw": 53.05846838015332, "q_from_mvar": -1.8270509210238726, "loading_percent": 0.5131691654312326, "is_violation": false}, {"line_id": 4, "from_bus": 2, "to_bus": 5, "p_from_mw": 38.991454544311, "q_from_mvar": 0.8690523637072438, "loading_percent": 0.37840765434208384, "is_violation": false}, {"line_id": 5, "from_bus": 3, "to_bus": 4, "p_from_mw": -26.578241930972446, "q_from_mvar": 4.906704028537061, "loading_percent": 0.2726792624382278, "is_violation": false}, {"line_id": 6, "from_bus": 4, "to_bus": 5, "p_from_mw": -58.95866995251195, "q_from_mvar": 15.28711037217684, "loading_percent": 0.603536900169494, "is_violation": false}, {"line_id": 7, "from_bus": 6, "to_bus": 11, "p_from_mw": 8.354749113268436, "q_from_mvar": 3.2160253266969363, "loading_percent": 0.08451198462133998, "is_violation": false}, {"line_id": 8, "from_bus": 6, "to_bus": 12, "p_from_mw": 7.633866099815082, "q_from_mvar": 2.347817740938849, "loading_percent": 0.07539647891643066, "is_violation": false}, {"line_id": 9, "from_bus": 6, "to_bus": 13, "p_from_mw": 17.600037846536665, "q_from_mvar": 6.76118911005113, "loading_percent": 0.17798588628542403, "is_violation": false}, {"line_id": 10, "from_bus": 9, "to_bus": 10, "p_from_mw": 3.856469739654601, "q_from_mvar": 4.302711488563986, "loading_percent": 0.05528117878773553, "is_violation": false}, {"line_id": 11, "from_bus": 9, "to_bus": 14, "p_from_mw": 8.520735191425256, "q_from_mvar": 3.733874642959761, "loading_percent": 0.08900563610732942, "is_violation": false}, {"line_id": 12, "from_bus": 10, "to_bus": 11, "p_from_mw": -4.484001073713692, "q_from_mvar": -1.091427900356459, "loading_percent": 0.044346500384726276, "is_violation": false}, {"line_id": 13, "from_bus": 12, "to_bus": 13, "p_from_mw": 1.655590326020494, "q_from_mvar": 0.6551825407444632, "loading_percent": 0.0170355904193995, "is_violation": false}, {"line_id": 14, "from_bus": 13, "to_bus": 14, "p_from_mw": 6.22902003746492, "q_from_mvar": 1.5005395783172473, "loading_percent": 0.061577043672032546, "is_violation": false}, {"line_id": 100000, "from_bus": 4, "to_bus": 7, "p_from_mw": 27.438479499863533, "q_from_mvar": -9.048579971723584, "loading_percent": 0.28628909220114845, "is_violation": false}, {"line_id": 100001, "from_bus": 4, "to_bus": 9, "p_from_mw": 15.718024186947336, "q_from_mvar": -0.09372939833548559, "loading_percent": 0.15575179248036564, "is_violation": false}, {"line_id": 100002, "from_bus": 5, "to_bus": 6, "p_from_mw": 40.58865305891281, "q_from_mvar": 12.917719611518203, "loading_percent": 0.421346333925286, "is_violation": false}, {"line_id": 100003, "from_bus": 7, "to_bus": 8, "p_from_mw": -9.511729863559933e-15, "q_from_mvar": -16.94204938242343, "loading_percent": 0.16115683225535832, "is_violation": false}, {"line_id": 100004, "from_bus": 7, "to_bus": 9, "p_from_mw": 27.43847949957901, "q_from_mvar": 6.286701048237034, "loading_percent": 0.2677645198643431, "is_violation": false}], "total_generation_mw": 261.7111759276304, "total_load_mw": 249.1896580022036, "total_loss_mw": 12.521517929298732, "voltage_violations": [{"bus_id": 1, "vm_pu": 1.06, "va_deg": 0.0, "is_violation": true, "violation_type": "overvoltage"}, {"bus_id": 6, "vm_pu": 1.07, "va_deg": -13.308281838626106, "is_violation": true, "violation_type": "overvoltage"}, {"bus_id": 7, "vm_pu": 1.0618961017582365, "va_deg": -12.75326529478478, "is_violation": true, "violation_type": "overvoltage"}, {"bus_id": 8, "vm_pu": 1.09, "va_deg": -12.753265294784779, "is_violation": true, "violation_type": "overvoltage"}, {"bus_id": 9, "vm_pu": 1.0557659615676667, "va_deg": -14.296093751782017, "is_violation": true, "violation_type": "overvoltage"}, {"bus_id": 10, "vm_pu": 1.051161792656725, "va_deg": -14.393672003252604, "is_violation": true, "violation_type": "overvoltage"}, {"bus_id": 11, "vm_pu": 1.0566816236294623, "va_deg": -13.995605606847787, "is_violation": true, "violation_type": "overvoltage"}, {"bus_id": 12, "vm_pu": 1.0557325824129777, "va_deg": -14.152430523846505, "is_violation": true, "violation_type": "overvoltage"}, {"bus_id": 13, "vm_pu": 1.0510291686880138, "va_deg": -14.248564947684988, "is_violation": true, "violation_type": "overvoltage"}], "thermal_violations": [], "summary_text": "", "solver_backend": "pandapower", "llm_prompt": null, "llm_response": null, "resolved_bus_id": 4, "assumption": "reactive load at this bus is unchanged from its present value"}
[tool run_powerflow]   (gate: pass)
{"case_name": "case14", "converged": true, "bus_voltages": [{"bus_id": 1, "vm_pu": 1.06, "va_deg": 0.0, "is_violation": true, "violation_type": "overvoltage"}, {"bus_id": 2, "vm_pu": 1.045, "va_deg": -4.744261785522628, "is_violation": false, "violation_type": null}, {"bus_id": 3, "vm_pu": 1.0100000000000002, "va_deg": -12.519676375954603, "is_violation": false, "violation_type": null}, {"bus_id": 4, "vm_pu": 1.0193830926847185, "va_deg": -9.781651494996359, "is_violation": false, "violation_type": null}, {"bus_id": 5, "vm_pu": 1.021129640336112, "va_deg": -8.302566414660815, "is_violation": false, "violation_type": null}, {"bus_id": 6, "vm_pu": 1.07, "va_deg": -13.308281838626106, "is_violation": true, "violation_type": "overvoltage"}, {"bus_id": 7, "vm_pu": 1.0618961017582365, "va_deg": -12.75326529478478, "is_violation": true, "violation_type": "overvoltage"}, {"bus_id": 8, "vm_pu": 1.09, "va_deg": -12.753265294784779, "is_violation": true, "violation_type": "overvoltage"}, {"bus_id": 9, "vm_pu": 1.0557659615676667, "va_deg": -14.296093751782017, "is_violation": true, "violation_type": "overvoltage"}, {"bus_id": 10, "vm_pu": 1.051161792656725, "va_deg": -14.393672003252604, "is_violation": true, "violation_type": "overvoltage"}, {"bus_id": 11, "vm_pu": 1.0566816236294623, "va_deg": -13.995605606847787, "is_violation": true, "violation_type": "overvoltage"}, {"bus_id": 12, "vm_pu": 1.0557325824129777, "va_deg": -14.152430523846505, "is_violation": true, "violation_type": "overvoltage"}, {"bus_id": 13, "vm_pu": 1.0510291686880138, "va_deg": -14.248564947684988, "is_violation": true, "violation_type": "overvoltage"}, {"bus_id": 14, "vm_pu": 1.036089820563498, "va_deg": -15.254268238673646, "is_violation": false, "violation_type": null}], "line_flows": [{"line_id": 0, "from_bus": 1, "to_bus": 2, "p_from_mw": 149.6803341906614, "q_from_mvar": -18.705423213135823, "loading_percent": 1.4374366921072956, "is_violation": false}, {"line_id": 1, "from_bus": 1, "to_bus": 5, "p_from_mw": 71.5830344457913, "q_from_mvar": 3.454795563652116, "loading_percent": 0.6836945818310722, "is_violation": false}, {"line_id": 2, "from_bus": 2, "to_bus": 3, "p_from_mw": 73.53405346823057, "q_from_mvar": 3.531166734721389, "loading_percent": 0.7121985273483293, "is_violation": false}, {"line_id": 3, "from_bus": 2, "to_bus": 4, "p_from_mw": 53.05846838015332, "q_from_mvar": -1.8270509210238726, "loading_percent": 0.5131691654312326, "is_violation": false}, {"line_id": 4, "from_bus": 2, "to_bus": 5, "p_from_mw": 38.991454544311, "q_from_mvar": 0.8690523637072438, "loading_percent": 0.37840765434208384, "is_violation": false}, {"line_id": 5, "from_bus": 3, "to_bus": 4, "p_from_mw": -26.578241930972446, "q_from_mvar": 4.906704028537061, "loading_percent": 0.2726792624382278, "is_violation": false}, {"line_id": 6, "from_bus": 4, "to_bus": 5, "p_from_mw": -58.95866995251195, "q_from_mvar": 15.28711037217684, "loading_percent": 0.603536900169494, "is_violation": false}, {"line_id": 7, "from_bus": 6, "to_bus": 11, "p_from_mw": 8.354749113268436, "q_from_mvar": 3.2160253266969363, "loading_percent": 0.08451198462133998, "is_violation": false}, {"line_id": 8, "from_bus": 6, "to_bus": 12, "p_from_mw": 7.633866099815082, "q_from_mvar": 2.347817740938849, "loading_percent": 0.07539647891643066, "is_violation": false}, {"line_id": 9, "from_bus": 6, "to_bus": 13, "p_from_mw": 17.600037846536665, "q_from_mvar": 6.76118911005113, "loading_percent": 0.17798588628542403, "is_violation": false}, {"line_id": 10, "from_bus": 9, "to_bus": 10, "p_from_mw": 3.856469739654601, "q_from_mvar": 4.302711488563986, "loading_percent": 0.05528117878773553, "is_violation": false}, {"line_id": 11, "from_bus": 9, "to_bus": 14, "p_from_mw": 8.520735191425256, "q_from_mvar": 3.733874642959761, "loading_percent": 0.08900563610732942, "is_violation": false}, {"line_id": 12, "from_bus": 10, "to_bus": 11, "p_from_mw": -4.484001073713692, "q_from_mvar": -1.091427900356459, "loading_percent": 0.044346500384726276, "is_violation": false}, {"line_id": 13, "from_bus": 12, "to_bus": 13, "p_from_mw": 1.655590326020494, "q_from_mvar": 0.6551825407444632, "loading_percent": 0.0170355904193995, "is_violation": false}, {"line_id": 14, "from_bus": 13, "to_bus": 14, "p_from_mw": 6.22902003746492, "q_from_mvar": 1.5005395783172473, "loading_percent": 0.061577043672032546, "is_violation": false}, {"line_id": 100000, "from_bus": 4, "to_bus": 7, "p_from_mw": 27.438479499863533, "q_from_mvar": -9.048579971723584, "loading_percent": 0.28628909220114845, "is_violation": false}, {"line_id": 100001, "from_bus": 4, "to_bus": 9, "p_from_mw": 15.718024186947336, "q_from_mvar": -0.09372939833548559, "loading_percent": 0.15575179248036564, "is_violation": false}, {"line_id": 100002, "from_bus": 5, "to_bus": 6, "p_from_mw": 40.58865305891281, "q_from_mvar": 12.917719611518203, "loading_percent": 0.421346333925286, "is_violation": false}, {"line_id": 100003, "from_bus": 7, "to_bus": 8, "p_from_mw": -9.511729863559933e-15, "q_from_mvar": -16.94204938242343, "loading_percent": 0.16115683225535832, "is_violation": false}, {"line_id": 100004, "from_bus": 7, "to_bus": 9, "p_from_mw": 27.43847949957901, "q_from_mvar": 6.286701048237034, "loading_percent": 0.2677645198643431, "is_violation": false}], "total_generation_mw": 261.7111759276304, "total_load_mw": 249.1896580022036, "total_loss_mw": 12.521517929298732, "voltage_violations": [{"bus_id": 1, "vm_pu": 1.06, "va_deg": 0.0, "is_violation": true, "violation_type": "overvoltage"}, {"bus_id": 6, "vm_pu": 1.07, "va_deg": -13.308281838626106, "is_violation": true, "violation_type": "overvoltage"}, {"bus_id": 7, "vm_pu": 1.0618961017582365, "va_deg": -12.75326529478478, "is_violation": true, "violation_type": "overvoltage"}, {"bus_id": 8, "vm_pu": 1.09, "va_deg": -12.753265294784779, "is_violation": true, "violation_type": "overvoltage"}, {"bus_id": 9, "vm_pu": 1.0557659615676667, "va_deg": -14.296093751782017, "is_violation": true, "violation_type": "overvoltage"}, {"bus_id": 10, "vm_pu": 1.051161792656725, "va_deg": -14.393672003252604, "is_violation": true, "violation_type": "overvoltage"}, {"bus_id": 11, "vm_pu": 1.0566816236294623, "va_deg": -13.995605606847787, "is_violation": true, "violation_type": "overvoltage"}, {"bus_id": 12, "vm_pu": 1.0557325824129777, "va_deg": -14.152430523846505, "is_violation": true, "violation_type": "overvoltage"}, {"bus_id": 13, "vm_pu": 1.0510291686880138, "va_deg": -14.248564947684988, "is_violation": true, "violation_type": "overvoltage"}], "thermal_violations": [], "summary_text": "", "solver_backend": "pandapower", "llm_prompt": null, "llm_response": null}
[tool get_status]   (gate: not applied)
{"active_case": "case14", "network_info": {"case_name": "case14", "n_buses": 14, "n_generators": 5, "n_lines": 20, "n_loads": 11, "total_load_mw": 249.1896580022036, "total_gen_capacity_mw": 772.4000000000001}, "has_last_result": true, "last_result_summary": {"converged": true, "total_load_mw": 249.1896580022036, "total_generation_mw": 261.7111759276304, "total_loss_mw": 12.521517929298732, "n_voltage_violations": 9, "n_thermal_violations": 0, "solver_backend": "pandapower"}}

--- round 3 ---
[assistant final]   (9107 in / 250 out tokens, 3.8 s)
1. **Summary:** The modified IEEE 14-bus AC power flow converged; **bus 3 has the lowest voltage magnitude at 1.0100 p.u.**

2. **Key numbers:**
   - Total load: **249.1897 MW**
   - Total generation: **261.7112 MW**
   - Total losses: **12.5215 MW**
   - Voltage range: **1.0100–1.0900 p.u.**

3. **Violations:** Overvoltage violations were reported at buses **1, 6, 7, 8, 9, 10, 11, 12, and 13**. No thermal violations were reported.

4. **Suggested next step:** Review generator voltage setpoints or reactive-power controls to mitigate the reported overvoltages.
